IEEE13Nodeckt_Reducedtest.dss
Clear

New Circuit.IEEE13Nodeckt_Reduced Phases=3 bus1=SourceBus basekv=115 pu=1 angle=0 MVAsc3=20000 MVAsc1=21000
New Line.rg60_632 Phases=3 bus1=rg60.1.2.3 bus2=632.1.2.3 Units=km Length=0.6096 Rmatrix=[ 0.215311004785    0.0969365562669    0.0981793326293| 0.0969365562669     0.209718511154     0.095383085814| 0.0981793326293     0.095383085814     0.212141925061|] Xmatrix=[ 0.63251102964     0.311750450506     0.263220033555| 0.311750450506     0.651090536257     0.239172310942| 0.263220033555     0.239172310942     0.643012489903|] Cmatrix=[0                  0                  0| 0                  0                  0| 0                  0                  0|]
New Line.632_670 Phases=3 bus1=632.1.2.3 bus2=670.1.2.3 Units=km Length=0.2033016 Rmatrix=[ 0.215311004785    0.0969365562667    0.0981793326291| 0.0969365562667     0.209718511154    0.0953830858137| 0.0981793326291    0.0953830858137     0.212141925061|] Xmatrix=[ 0.63251102964     0.311750450506     0.263220033555| 0.311750450506     0.651090536258     0.239172310943| 0.263220033555     0.239172310943     0.643012489902|] Cmatrix=[0                  0                  0| 0                  0                  0| 0                  0                  0|]
New Line.632_633 Phases=3 bus1=632.1.2.3 bus2=633.1.2.3 Units=km Length=0.1524 Rmatrix=[ 0.467656745169    0.0981793326291    0.0969365562667| 0.0981793326291     0.464487665445    0.0953830858137| 0.0969365562667    0.0953830858137     0.462064251538|] Xmatrix=[0.734107997266     0.263220033555     0.311750450506| 0.263220033555     0.744609457528     0.239172310943| 0.311750450506     0.239172310943     0.752625365066|] Cmatrix=[0                  0                  0| 0                  0                  0| 0                  0                  0|]
New Line.632_645 Phases=2 bus1=632.2.3 bus2=645.2.3 Units=km Length=0.1524 Rmatrix=[0.826073448083     0.128378798235| 0.128378798235     0.822593674268|] Xmatrix=[ 0.83707201889     0.285279313987| 0.285279313987     0.843161623066|] Cmatrix=[0                  0| 0                  0|]
New Line.670_671 Phases=3 bus1=670.1.2.3 bus2=671.1.2.3 Units=km Length=0.4062984 Rmatrix=[ 0.215311004785    0.0969365562667    0.0981793326291| 0.0969365562667     0.209718511154    0.0953830858137| 0.0981793326291    0.0953830858137     0.212141925061|] Xmatrix=[ 0.63251102964     0.311750450506     0.263220033555| 0.311750450506     0.651090536258     0.239172310943| 0.263220033555     0.239172310943     0.643012489902|] Cmatrix=[0                  0                  0| 0                  0                  0| 0                  0                  0|]
New Line.671_680 Phases=3 bus1=671.1.2.3 bus2=680.1.2.3 Units=km Length=0.3048 Rmatrix=[ 0.215311004785    0.0969365562667    0.0981793326291| 0.0969365562667     0.209718511154    0.0953830858137| 0.0981793326291    0.0953830858137     0.212141925061|] Xmatrix=[ 0.63251102964     0.311750450506     0.263220033555| 0.311750450506     0.651090536258     0.239172310943| 0.263220033555     0.239172310943     0.643012489902|] Cmatrix=[0                  0                  0| 0                  0                  0| 0                  0                  0|]
New Line.671_692 Phases=3 bus1=671.1.2.3 bus2=692.1.2.3 Units=km Length=0.24384 Rmatrix=[0.491966072205     0.197897222395      0.17613247996| 0.197897222395     0.485707450444     0.197897222395|  0.17613247996     0.197897222395     0.491966072205|] Xmatrix=[  0.272386752004    0.0172023861306   -0.0114462188529|  0.0172023861306     0.246502827316    0.0172023861306| -0.0114462188529    0.0172023861306     0.272386752004|] Cmatrix=[0                  0                  0| 0                  0                  0| 0                  0                  0|]
New Line.671_684 Phases=2 bus1=671.1.3 bus2=684.1.3 Units=km Length=0.09144 Rmatrix=[0.822593674268     0.128378798235| 0.128378798235     0.826073448083|] Xmatrix=[0.843161623066     0.285279313987| 0.285279313987      0.83707201889|] Cmatrix=[0                  0| 0                  0|]
New Line.645_646 Phases=2 bus1=645.2.3 bus2=646.2.3 Units=km Length=0.09144 Rmatrix=[0.826073448083     0.128378798235| 0.128378798235     0.822593674268|] Xmatrix=[ 0.83707201889     0.285279313987| 0.285279313987     0.843161623066|] Cmatrix=[0                  0| 0                  0|]
New Line.692_675 Phases=3 bus1=692.1.2.3 bus2=675.1.2.3 Units=km Length=0.1524 Rmatrix=[0.491966072205     0.197897222395      0.17613247996| 0.197897222395     0.485707450444     0.197897222395|  0.17613247996     0.197897222395     0.491966072205|] Xmatrix=[  0.272386752004    0.0172023861306   -0.0114462188529|  0.0172023861306     0.246502827316    0.0172023861306| -0.0114462188529    0.0172023861306     0.272386752004|] Cmatrix=[0                  0                  0| 0                  0                  0| 0                  0                  0|]
New Line.684_652 Phases=1 bus1=684.1 bus2=652.1 Units=km Length=0.24384 Rmatrix=0.83421363 Xmatrix=0.3183993 Cmatrix=0
New Line.684_611 Phases=1 bus1=684.3 bus2=611.3 Units=km Length=0.09144 Rmatrix=0.82594917 Xmatrix=0.83732057 Cmatrix=0
New Transformer.Sub Phases=3 Windings=2 XHL=0.008 XLT=4 XHT=4 %Noloadloss=0 %imag=0 sub=y Wdg=1 Bus=SourceBus Conn=delta kV=115 kVA=5000 %R=0.0005 Wdg=2 Bus=650 Conn=wye kV=4.16 kVA=5000 %R=0.0005
New Transformer.Reg1 Phases=1 Buses=[650.1 RG60.1] kVs=[2.4         2.4] kVAs=[1666  1666] XHL=0.01 %Loadloss=0.01 %Noloadloss=0 %imag=0
New Transformer.Reg2 Phases=1 Buses=[650.2 RG60.2] kVs=[2.4         2.4] kVAs=[1666  1666] XHL=0.01 %Loadloss=0.01 %Noloadloss=0 %imag=0
New Transformer.Reg3 Phases=1 Buses=[650.3 RG60.3] kVs=[2.4         2.4] kVAs=[1666  1666] XHL=0.01 %Loadloss=0.01 %Noloadloss=0 %imag=0
New Capacitor.addedShuntCap_RG60 Phases=3 Bus1=RG60.1.2.3 Kvar=0 Kv=2.4018 Cmatrix=[0.00053032           0           0|          0  0.00053032           0|          0           0  0.00053031|]
New Capacitor.addedShuntCap_632 Phases=3 Bus1=632.1.2.3 Kvar=0 Kv=2.4018 Cmatrix=[0.00083973           0           0|          0  0.00097232           0|          0           0  0.00097234|]
New Capacitor.addedShuntCap_670 Phases=3 Bus1=670.1.2.3 Kvar=0 Kv=2.4018 Cmatrix=[0.00053029           0           0|          0   0.0005303           0|          0           0  0.00053034|]
New Capacitor.addedShuntCap_671 Phases=3 Bus1=671.1.2.3 Kvar=0 Kv=2.4018 Cmatrix=[0.00091029           0           0|          0  0.00083076           0|          0           0  0.00091032|]
New Capacitor.addedShuntCap_692 Phases=3 Bus1=692.1.2.3 Kvar=0 Kv=2.4018 Cmatrix=[0.00034474           0           0|          0  0.00034477           0|          0           0  0.00034474|]


! Let DSS estimate the voltage bases
Set voltagebases=[115 4.16 0.48]
Calcvoltagebases     ! This also establishes the bus list

Buscoords IEEE13Nodeckt_Reducedtest_buscoords.csv


set maxiterations=1000
